@<TRIPOS>MOLECULE
2KD-A.xyz
 44 49 0 0 0
SMALL
GASTEIGER

@<TRIPOS>ATOM
      1 H           5.7661   -2.7995   -2.5164 ha      1  LIG1     0.189727
      2 C           5.8340   -3.8856   -2.5892 ca      1  LIG1    -0.177386
      3 C           4.8491   -4.5912   -3.2850 ca      1  LIG1    -0.155842
      4 C           4.9177   -5.9824   -3.3899 ca      1  LIG1    -0.192359
      5 C           5.9875   -6.6191   -2.7835 ca      1  LIG1    -0.269134
      6 C           6.9835   -5.9352   -2.0830 ca      1  LIG1     0.101397
      7 C           6.9045   -4.5471   -1.9850 ca      1  LIG1    -0.180407
      8 S           6.2883   -8.3850   -2.7827 s6      1  LIG1     1.225853
      9 C           7.7860   -8.1841   -1.8173 ca      1  LIG1    -0.261699
     10 C           8.0196   -6.8367   -1.5262 ca      1  LIG1     0.097240
     11 C           9.1445   -6.4973   -0.7809 ca      1  LIG1    -0.195334
     12 C          10.0063   -7.5119   -0.3458 ca      1  LIG1     0.156067
     13 C           9.7509   -8.8507   -0.6497 ca      1  LIG1    -0.135427
     14 C           8.6239   -9.2019   -1.3977 ca      1  LIG1    -0.208928
     15 O           6.6093   -8.8467   -4.1211 o       1  LIG1    -0.500169
     16 O           5.2748   -9.0731   -2.0037 o       1  LIG1    -0.500190
     17 H           4.1597   -6.5532   -3.9284 ha      1  LIG1     0.214768
     18 H          10.4484   -9.6081   -0.2908 ha      1  LIG1     0.209287
     19 H           8.4089  -10.2427   -1.6443 ha      1  LIG1     0.219994
     20 H           9.3716   -5.4596   -0.5271 ha      1  LIG1     0.203136
     21 H           4.0220   -4.0527   -3.7489 ha      1  LIG1     0.191362
     22 H           7.6660   -3.9822   -1.4450 ha      1  LIG1     0.188997
     23 N          11.1677   -7.1904    0.4206 nh      1  LIG1    -0.711992
     24 C          12.3048   -6.7245   -0.2809 ca      1  LIG1     0.331997
     25 C          13.5376   -6.5758    0.3809 ca      1  LIG1    -0.175800
     26 S          13.7340   -7.1487    2.0428 sh      1  LIG1     0.232977
     27 C          12.1065   -6.8168    2.6510 ca      1  LIG1    -0.175824
     28 C          10.9911   -6.9458    1.8030 ca      1  LIG1     0.332060
     29 C          12.2483   -6.4107   -1.6462 ca      1  LIG1    -0.203608
     30 C          13.3781   -5.9526   -2.3230 ca      1  LIG1    -0.185124
     31 C          14.5823   -5.7738   -1.6518 ca      1  LIG1    -0.158646
     32 C          14.6514   -6.0817   -0.2943 ca      1  LIG1    -0.205140
     33 C          11.9405   -6.5382    4.0058 ca      1  LIG1    -0.205079
     34 C          10.6662   -6.4334    4.5602 ca      1  LIG1    -0.158684
     35 C           9.5576   -6.5963    3.7373 ca      1  LIG1    -0.185169
     36 C           9.7147   -6.8377    2.3729 ca      1  LIG1    -0.203648
     37 H          11.3186   -6.5395   -2.1973 ha      1  LIG1     0.189761
     38 H           8.8284   -6.9594    1.7527 ha      1  LIG1     0.189765
     39 H          13.3020   -5.7291   -3.3879 ha      1  LIG1     0.176281
     40 H          15.5857   -5.9605    0.2568 ha      1  LIG1     0.185215
     41 H          12.8294   -6.4246    4.6290 ha      1  LIG1     0.185209
     42 H           8.5502   -6.5299    4.1499 ha      1  LIG1     0.176289
     43 H          15.4649   -5.4062   -2.1754 ha      1  LIG1     0.174100
     44 H          10.5473   -6.2345    5.6254 ha      1  LIG1     0.174105
@<TRIPOS>BOND
     1    15     8    2
     2    17     4    1
     3    21     3    1
     4     4     3   ar
     5     4     5   ar
     6    39    30    1
     7     3     2   ar
     8     5     8    1
     9     5     6   ar
    10     8    16    2
    11     8     9    1
    12     2     1    1
    13     2     7   ar
    14    30    31   ar
    15    30    29   ar
    16    37    29    1
    17    43    31    1
    18     6     7   ar
    19     6    10    1
    20     7    22    1
    21     9    10   ar
    22     9    14   ar
    23    31    32   ar
    24    29    24   ar
    25    19    14    1
    26    10    11   ar
    27    14    13   ar
    28    11    20    1
    29    11    12   ar
    30    13    12   ar
    31    13    18    1
    32    12    23    1
    33    32    40    1
    34    32    25   ar
    35    24    25   ar
    36    24    23    1
    37    25    26    1
    38    23    28    1
    39    38    36    1
    40    28    36   ar
    41    28    27   ar
    42    26    27    1
    43    36    35   ar
    44    27    33   ar
    45    35    42    1
    46    35    34   ar
    47    33    34   ar
    48    33    41    1
    49    34    44    1












































