@<TRIPOS>MOLECULE
DPEPO.hayz
 69 74 0 0 0
SMALL
GASTEIGER

@<TRIPOS>ATOM
      1 C          -3.5393   -1.2612    2.0198 ca    1  LIG1    -0.027550   
      2 C          -2.4331   -0.6345    1.4125 ca    1  LIG1    -0.430544   
      3 C          -1.1894   -0.6149    2.0901 ca    1  LIG1     0.248244   
      4 C          -1.0911   -1.2643    3.3459 ca    1  LIG1    -0.136072   
      5 C          -2.1973   -1.8840    3.9220 ca    1  LIG1    -0.076210   
      6 C          -3.4201   -1.8766    3.2636 ca    1  LIG1    -0.088587   
      7 P          -2.6661    0.1200   -0.2662 py    1  LIG1     1.212603   
      8 O          -4.1908   -0.0323   -0.5223 o     1  LIG1    -0.648138   
      9 C          -1.9771   -0.9469   -1.5937 ca    1  LIG1    -0.311030   
     10 C          -2.1164   -2.3393   -1.5056 ca    1  LIG1    -0.015725   
     11 C          -1.6108   -3.1612   -2.5170 ca    1  LIG1    -0.078559   
     12 C          -0.9763   -2.5952   -3.6255 ca    1  LIG1    -0.076249   
     13 C          -0.8484   -1.2069   -3.7231 ca    1  LIG1    -0.121904   
     14 C          -1.3450   -0.3825   -2.7064 ca    1  LIG1    -0.070550   
     15 C          -2.3464    1.9316   -0.4400 ca    1  LIG1    -0.416418   
     16 C          -3.4052    2.8268   -0.6628 ca    1  LIG1    -0.036891   
     17 C          -3.1517    4.1960   -0.7941 ca    1  LIG1    -0.089253   
     18 C          -1.8432    4.6779   -0.7057 ca    1  LIG1    -0.084873   
     19 C          -1.0362    2.4224   -0.3563 ca    1  LIG1    -0.044325   
     20 O          -0.0976    0.0039    1.5416 os    1  LIG1    -0.398293   
     21 C           0.9287    0.5385    2.2740 ca    1  LIG1     0.221796   
     22 C           2.2640    0.4795    1.8062 ca    1  LIG1    -0.443793   
     23 C           3.3003    0.9966    2.6046 ca    1  LIG1    -0.036003   
     24 C           3.0243    1.5850    3.8378 ca    1  LIG1    -0.089153   
     25 C           1.7122    1.6713    4.2910 ca    1  LIG1    -0.074134   
     26 C           0.6715    1.1561    3.5201 ca    1  LIG1    -0.104750   
     27 P           2.6938   -0.2300    0.1510 py    1  LIG1     1.211736   
     28 O           4.2446   -0.3119    0.1460 o     1  LIG1    -0.624207   
     29 C           2.1532   -1.9544   -0.2236 ca    1  LIG1    -0.350870   
     30 C           2.3799    1.0351   -1.1476 ca    1  LIG1    -0.362907   
     31 C           2.8412    2.3463   -0.9600 ca    1  LIG1    -0.019485   
     32 C           2.6143    3.3183   -1.9389 ca    1  LIG1    -0.095560   
     33 C           1.9295    2.9840   -3.1099 ca    1  LIG1    -0.078172   
     34 C           1.4749    1.6769   -3.3026 ca    1  LIG1    -0.094369   
     35 C           1.7004    0.7046   -2.3223 ca    1  LIG1    -0.068066   
     36 C           2.5219   -2.5517   -1.4378 ca    1  LIG1    -0.056709   
     37 C           2.1048   -3.8521   -1.7374 ca    1  LIG1    -0.082766   
     38 C           1.3231   -4.5641   -0.8238 ca    1  LIG1    -0.085925   
     39 C           0.9623   -3.9778    0.3922 ca    1  LIG1    -0.094930   
     40 C           1.3779   -2.6774    0.6936 ca    1  LIG1    -0.036766   
     41 H          -3.9703    4.8833   -0.9644 ha    1  LIG1     0.102449   
     42 H          -4.4238    2.4701   -0.7331 ha    1  LIG1     0.134868   
     43 H           3.3728    2.6134   -0.0557 ha    1  LIG1     0.112998   
     44 H           1.7539    3.7359   -3.8681 ha    1  LIG1     0.099916   
     45 H           0.9489    1.4176   -4.2118 ha    1  LIG1     0.099445   
     46 H           1.3541   -0.3024   -2.4790 ha    1  LIG1     0.146621   
     47 H          -0.5876   -3.2312   -4.4101 ha    1  LIG1     0.095084   
     48 H          -0.3617   -0.7696   -4.5849 ha    1  LIG1     0.100676   
     49 H          -1.7139   -4.2360   -2.4428 ha    1  LIG1     0.093710   
     50 H          -2.6115   -2.7854   -0.6525 ha    1  LIG1     0.106337   
     51 H          -1.2458    0.6911   -2.7916 ha    1  LIG1     0.123086   
     52 H           3.1264   -2.0074   -2.1521 ha    1  LIG1     0.118301   
     53 H           2.3869   -4.3072   -2.6779 ha    1  LIG1     0.099321   
     54 H           1.0001   -5.5705   -1.0565 ha    1  LIG1     0.098766   
     55 H           0.3614   -4.5312    1.1022 ha    1  LIG1     0.096669   
     56 H           1.0993   -2.2421    1.6398 ha    1  LIG1     0.113883   
     57 H          -0.3402    1.2374    3.8955 ha    1  LIG1     0.133683   
     58 H           1.4994    2.1371    5.2446 ha    1  LIG1     0.106733   
     59 H           3.8308    1.9851    4.4386 ha    1  LIG1     0.104646   
     60 H           4.3268    0.9599    2.2668 ha    1  LIG1     0.143370   
     61 H          -2.1041   -2.3725    4.8834 ha    1  LIG1     0.104805   
     62 H          -0.1519   -1.2971    3.8812 ha    1  LIG1     0.131359   
     63 H          -4.2787   -2.3587    3.7131 ha    1  LIG1     0.102823   
     64 H           2.9689    4.3298   -1.7894 ha    1  LIG1     0.100696   
     65 C          -0.7861    3.7912   -0.4876 ca    1  LIG1    -0.095892   
     66 H          -1.6483    5.7376   -0.8077 ha    1  LIG1     0.098516   
     67 H          -0.2105    1.7485   -0.1973 ha    1  LIG1     0.136765   
     68 H           0.2271    4.1645   -0.4216 ha    1  LIG1     0.099712   
     69 H          -4.5005   -1.2873    1.5264 ha    1  LIG1     0.146010   
@<TRIPOS>BOND
     1    48    13    1
     2    47    12    1
     3    45    34    1
     4    44    33    1
     5    13    12    1
     6    13    14    1 
     7    12    11    1
     8    34    33    1
     9    34    35    1 
    10    33    32    1 
    11    51    14    1
    12    14     9    1
    13    53    37    1
    14    11    49    1
    15    11    10    1
    16    46    35    1
    17    35    30    1
    18    52    36    1
    19    32    64    1
    20    32    31    1
    21    37    36    1
    22    37    38    1
    23     9    10    1
    24     9     7    1
    25    10    50    1
    26    36    29    1
    27    30    31    1 
    28    30    27    1
    29    54    38    1
    30    41    17    1
    31    31    43    1
    32    38    39    1 
    33    66    18    1
    34    17    18    1
    35    17    16    1
    36    42    16    1
    37    18    65    1
    38    16    15    1 
    39     8     7    1
    40    65    68    1
    41    65    19    1
    42    15    19    1
    43    15     7    1
    44    19    67    1
    45     7     2    1
    46    29    27    1
    47    29    40    1
    48    28    27    2
    49    27    22    1
    50    39    40    1
    51    39    55    1
    52    40    56    1
    53     2     1    1
    54     2     3    1
    55    69     1    1
    56    20     3    1
    57    20    21    1
    58    22    21    1
    59    22    23    1
    60     1     6    1 
    61     3     4    1
    62    60    23    1
    63    21    26    1 
    64    23    24    1
    65     6    63    1
    66     6     5    1
    67     4    62    1
    68     4     5    1
    69    26    57    1
    70    26    25    1
    71    24    25    1 
    72    24    59    1
    73     5    61    1
    74    25    58    1
